Circuit: * C:\Users\jeff7\Documents\GitHub\LEP\lab-01\Exp01_ret.asc

.OP point found by inspection.

Date: Fri Feb 09 09:55:15 2024
Total elapsed time: 0.065 seconds.

tnom = 27
temp = 27
method = modified trap
totiter = 27920
traniter = 27920
tranpoints = 5746
accept = 4525
rejected = 1221
matrix size = 9
fillins = 2
solver = Normal
Matrix Compiler1: 590 bytes object code size  0.4/0.1/[0.1]
Matrix Compiler2: off  [0.1]/0.1/0.1

